<?xml version="1.0" encoding="UTF-8"?> 

<routes xmlns:xsi="http://www.w3.org/2001/XMLSchema-instance" xsi:noNamespaceSchemaLocation="http://sumo.dlr.de/xsd/routes_file.xsd">

    <vType id="type1" vClass="taxi"/> 

    <flow id="flow_0" begin="0" end="1000" number="1" from="548391137" to="102638445" type="type1" color="green"></flow>
    <flow id="flow_1" begin="0" end="1000" number="1" from="989128586#1" to="158521439#1" type="type1" color="green"></flow>
    <flow id="flow_2" begin="0" end="1000" number="1" from="801989892" to="989128585#2" type="type1" color="green"></flow>
    <flow id="flow_3" begin="1" end="1000" number="1" from="651776724#1" to="329638716#1" type="type1" color="green"></flow>
    <flow id="flow_4" begin="1" end="1000" number="1" from="-127430276#1" to="23339988" type="type1" color="green"></flow>
    <flow id="flow_5" begin="1" end="1000" number="1" from="-963299945#4" to="617268283" type="type1" color="green"></flow>
    <flow id="flow_6" begin="2" end="1000" number="1" from="-154596672" to="-373707748#2" type="type1" color="green"></flow>
    <flow id="flow_7" begin="3" end="1000" number="1" from="-247338086#0" to="159590379" type="type1" color="green"></flow>
    <flow id="flow_8" begin="3" end="1000" number="1" from="247338000" to="-923337729" type="type1" color="green"></flow>
    <flow id="flow_9" begin="4" end="1000" number="1" from="159590393#2" to="369149866#4" type="type1" color="green"></flow>
    <flow id="flow_10" begin="4" end="1000" number="1" from="-194370608" to="42145975#1" type="type1" color="green"></flow>
    <flow id="flow_11" begin="5" end="1000" number="1" from="-963299947" to="-106625622" type="type1" color="green"></flow>
    <flow id="flow_12" begin="5" end="1000" number="1" from="923198375" to="-786906617#3" type="type1" color="green"></flow>
    <flow id="flow_13" begin="5" end="1000" number="1" from="182625978" to="1089867232" type="type1" color="green"></flow>
    <flow id="flow_14" begin="6" end="1000" number="1" from="-494955624#8" to="162569926#1" type="type1" color="green"></flow>
    <flow id="flow_15" begin="6" end="1000" number="1" from="-379867024#1" to="-161067671#0" type="type1" color="green"></flow>
    <flow id="flow_16" begin="6" end="1000" number="1" from="-313166700" to="548389885#0" type="type1" color="green"></flow>
    <flow id="flow_17" begin="6" end="1000" number="1" from="54806853" to="192153795#3" type="type1" color="green"></flow>
    <flow id="flow_18" begin="8" end="1000" number="1" from="-282484252#2" to="-299449314#4" type="type1" color="green"></flow>
    <flow id="flow_19" begin="8" end="1000" number="1" from="-102311755#1" to="-106090958" type="type1" color="green"></flow>
    <flow id="flow_20" begin="8" end="1000" number="1" from="-71952768" to="-768480663" type="type1" color="green"></flow>
    <flow id="flow_21" begin="8" end="1000" number="1" from="-388848801#3" to="-390224170" type="type1" color="green"></flow>
    <flow id="flow_22" begin="8" end="1000" number="1" from="125233432#0" to="136573306" type="type1" color="green"></flow>
    <flow id="flow_23" begin="9" end="1000" number="1" from="-561241604#2" to="35828930" type="type1" color="green"></flow>
    <flow id="flow_24" begin="9" end="1000" number="1" from="796487890" to="561240520#3" type="type1" color="green"></flow>
    <flow id="flow_25" begin="13" end="1000" number="1" from="-617266458" to="-494955624#7" type="type1" color="green"></flow>
    <flow id="flow_26" begin="14" end="1000" number="1" from="801989892" to="-561240520#2" type="type1" color="green"></flow>
    <flow id="flow_27" begin="16" end="1000" number="1" from="159590398#0" to="127430281" type="type1" color="green"></flow>
    <flow id="flow_28" begin="18" end="1000" number="1" from="-112981392#1" to="159589386" type="type1" color="green"></flow>
    <flow id="flow_29" begin="18" end="1000" number="1" from="183531056#4" to="-388848801#3" type="type1" color="green"></flow>
    <flow id="flow_30" begin="18" end="1000" number="1" from="-329637634#0" to="1065466130#1" type="type1" color="green"></flow>
    <flow id="flow_31" begin="18" end="1000" number="1" from="-157110598" to="155551491" type="type1" color="green"></flow>
    <flow id="flow_32" begin="19" end="1000" number="1" from="130420828#0" to="496339069#1" type="type1" color="green"></flow>
    <flow id="flow_33" begin="19" end="1000" number="1" from="494954908#0" to="-102638448#0" type="type1" color="green"></flow>
    <flow id="flow_34" begin="21" end="1000" number="1" from="494956649" to="796487890" type="type1" color="green"></flow>
    <flow id="flow_35" begin="22" end="1000" number="1" from="83128834" to="155991768" type="type1" color="green"></flow>
    <flow id="flow_36" begin="22" end="1000" number="1" from="-158487868#1" to="136314756#1" type="type1" color="green"></flow>
    <flow id="flow_37" begin="24" end="1000" number="1" from="158487864#1" to="135547600#0" type="type1" color="green"></flow>
    <flow id="flow_38" begin="24" end="1000" number="1" from="249722324#1" to="803808673#0" type="type1" color="green"></flow>
    <flow id="flow_39" begin="25" end="1000" number="1" from="138907165" to="-494956661#2" type="type1" color="green"></flow>
    <flow id="flow_40" begin="26" end="1000" number="1" from="249722324#3" to="248996587#0" type="type1" color="green"></flow>
    <flow id="flow_41" begin="26" end="1000" number="1" from="83125481" to="-494954904#1" type="type1" color="green"></flow>
    <flow id="flow_42" begin="27" end="1000" number="1" from="-156805893" to="1027121442" type="type1" color="green"></flow>
    <flow id="flow_43" begin="27" end="1000" number="1" from="-125013569" to="158487868#7" type="type1" color="green"></flow>
    <flow id="flow_44" begin="28" end="1000" number="1" from="176822029" to="-1089867231#0" type="type1" color="green"></flow>
    <flow id="flow_45" begin="29" end="1000" number="1" from="370744329#3" to="183535313#2" type="type1" color="green"></flow>
    <flow id="flow_46" begin="29" end="1000" number="1" from="159589417#0" to="159590387#5" type="type1" color="green"></flow>
    <flow id="flow_47" begin="30" end="1000" number="1" from="474057930#0" to="-1065471967#1" type="type1" color="green"></flow>
    <flow id="flow_48" begin="32" end="1000" number="1" from="194377778#5" to="-145296491" type="type1" color="green"></flow>
    <flow id="flow_49" begin="32" end="1000" number="1" from="83128834" to="-494955624#3" type="type1" color="green"></flow>
    <flow id="flow_50" begin="34" end="1000" number="1" from="553801612" to="-553805665" type="type1" color="green"></flow>
    <flow id="flow_51" begin="35" end="1000" number="1" from="-257144621#1" to="-923201177#2" type="type1" color="green"></flow>
    <flow id="flow_52" begin="35" end="1000" number="1" from="304586075" to="157169349#1" type="type1" color="green"></flow>
    <flow id="flow_53" begin="36" end="1000" number="1" from="313743395#0" to="100467520" type="type1" color="green"></flow>
    <flow id="flow_54" begin="36" end="1000" number="1" from="227096306" to="-205835535" type="type1" color="green"></flow>
    <flow id="flow_55" begin="39" end="1000" number="1" from="494954914#1" to="159589423#0" type="type1" color="green"></flow>
    <flow id="flow_56" begin="41" end="1000" number="1" from="125421158#2" to="-136314755#3" type="type1" color="green"></flow>
    <flow id="flow_57" begin="42" end="1000" number="1" from="188495694" to="-187782970" type="type1" color="green"></flow>
    <flow id="flow_58" begin="43" end="1000" number="1" from="-694819735" to="156868326#2" type="type1" color="green"></flow>
    <flow id="flow_59" begin="43" end="1000" number="1" from="304586080" to="52253844#1" type="type1" color="green"></flow>
    <flow id="flow_60" begin="43" end="1000" number="1" from="159589394#0" to="-35828813#1" type="type1" color="green"></flow>
    <flow id="flow_61" begin="44" end="1000" number="1" from="156619624#1" to="106766904" type="type1" color="green"></flow>
    <flow id="flow_62" begin="45" end="1000" number="1" from="83069540" to="370035836#0" type="type1" color="green"></flow>
    <flow id="flow_63" begin="46" end="1000" number="1" from="-188213329#0" to="136314759#0" type="type1" color="green"></flow>
    <flow id="flow_64" begin="47" end="1000" number="1" from="798973761" to="138907180" type="type1" color="green"></flow>
    <flow id="flow_65" begin="47" end="1000" number="1" from="135547602" to="-494954911#2" type="type1" color="green"></flow>
    <flow id="flow_66" begin="48" end="1000" number="1" from="-176822017#1" to="561241603" type="type1" color="green"></flow>
    <flow id="flow_67" begin="48" end="1000" number="1" from="-35828818" to="850396602#1" type="type1" color="green"></flow>
    <flow id="flow_68" begin="48" end="1000" number="1" from="801989874" to="136314755#2" type="type1" color="green"></flow>
    <flow id="flow_69" begin="49" end="1000" number="1" from="257144628" to="-38613661#2" type="type1" color="green"></flow>
    <flow id="flow_70" begin="49" end="1000" number="1" from="850396594#1" to="-152058537" type="type1" color="green"></flow>
    <flow id="flow_71" begin="50" end="1000" number="1" from="-180866656#4" to="494956661#3" type="type1" color="green"></flow>
    <flow id="flow_72" begin="53" end="1000" number="1" from="351740730" to="178679551" type="type1" color="green"></flow>
    <flow id="flow_73" begin="53" end="1000" number="1" from="-130552182" to="-849402984" type="type1" color="green"></flow>
    <flow id="flow_74" begin="54" end="1000" number="1" from="989128585#5" to="494955624#5" type="type1" color="green"></flow>
    <flow id="flow_75" begin="55" end="1000" number="1" from="157110579#2" to="-989085662" type="type1" color="green"></flow>
    <flow id="flow_76" begin="56" end="1000" number="1" from="196168182" to="626729858" type="type1" color="green"></flow>
    <flow id="flow_77" begin="56" end="1000" number="1" from="183906214#5" to="-329637634#0" type="type1" color="green"></flow>
    <flow id="flow_78" begin="57" end="1000" number="1" from="-155991761#0" to="617266457#3" type="type1" color="green"></flow>
    <flow id="flow_79" begin="57" end="1000" number="1" from="-134064076#2" to="281442653#3" type="type1" color="green"></flow>
    <flow id="flow_80" begin="57" end="1000" number="1" from="155987495#8" to="-686194353#3" type="type1" color="green"></flow>
    <flow id="flow_81" begin="59" end="1000" number="1" from="-296092596#0" to="923201175" type="type1" color="green"></flow>
    <flow id="flow_82" begin="61" end="1000" number="1" from="388848801#0" to="-299449335" type="type1" color="green"></flow>
    <flow id="flow_83" begin="61" end="1000" number="1" from="580352004" to="183237049#1" type="type1" color="green"></flow>
    <flow id="flow_84" begin="61" end="1000" number="1" from="-200257738#4" to="-390224192#0" type="type1" color="green"></flow>
    <flow id="flow_85" begin="62" end="1000" number="1" from="191711844#0" to="159590385#1" type="type1" color="green"></flow>
    <flow id="flow_86" begin="62" end="1000" number="1" from="-35828931#3" to="-157110545#3" type="type1" color="green"></flow>
    <flow id="flow_87" begin="63" end="1000" number="1" from="183905623" to="125421156#1" type="type1" color="green"></flow>
    <flow id="flow_88" begin="65" end="1000" number="1" from="-313737574#3" to="194377781#1" type="type1" color="green"></flow>
    <flow id="flow_89" begin="65" end="1000" number="1" from="548389890#4" to="-390224196" type="type1" color="green"></flow>
    <flow id="flow_90" begin="66" end="1000" number="1" from="313734165#2" to="194834545#0" type="type1" color="green"></flow>
    <flow id="flow_91" begin="68" end="1000" number="1" from="27206467#4" to="801989873" type="type1" color="green"></flow>
    <flow id="flow_92" begin="68" end="1000" number="1" from="923198363#0" to="138907190#0" type="type1" color="green"></flow>
    <flow id="flow_93" begin="69" end="1000" number="1" from="249006687#0" to="1066506780#0" type="type1" color="green"></flow>
    <flow id="flow_94" begin="70" end="1000" number="1" from="125421140" to="247338086#1" type="type1" color="green"></flow>
    <flow id="flow_95" begin="70" end="1000" number="1" from="176822025#5" to="-329639462" type="type1" color="green"></flow>
    <flow id="flow_96" begin="71" end="1000" number="1" from="-244040941" to="159590390#0" type="type1" color="green"></flow>
    <flow id="flow_97" begin="72" end="1000" number="1" from="329674529#0" to="-494955623#0" type="type1" color="green"></flow>
    <flow id="flow_98" begin="72" end="1000" number="1" from="561241604#0" to="282484242#1" type="type1" color="green"></flow>
    <flow id="flow_99" begin="72" end="1000" number="1" from="156568128" to="-494955624#10" type="type1" color="green"></flow>
    <flow id="flow_100" begin="72" end="1000" number="1" from="-184178587#2" to="27439385#0" type="type1" color="green"></flow>
    <flow id="flow_101" begin="72" end="1000" number="1" from="1066399898" to="308713656#1" type="type1" color="green"></flow>
    <flow id="flow_102" begin="73" end="1000" number="1" from="370744327#0" to="282484543#0" type="type1" color="green"></flow>
    <flow id="flow_103" begin="73" end="1000" number="1" from="159589386" to="-157110585#7" type="type1" color="green"></flow>
    <flow id="flow_104" begin="76" end="1000" number="1" from="158487864#2" to="802584518#4" type="type1" color="green"></flow>
    <flow id="flow_105" begin="77" end="1000" number="1" from="494954910#3" to="768480637" type="type1" color="green"></flow>
    <flow id="flow_106" begin="77" end="1000" number="1" from="-136314748#0" to="135547598" type="type1" color="green"></flow>
    <flow id="flow_107" begin="78" end="1000" number="1" from="159589396#2" to="388843092#0" type="type1" color="green"></flow>
    <flow id="flow_108" begin="78" end="1000" number="1" from="83125470" to="768480660" type="type1" color="green"></flow>
    <flow id="flow_109" begin="79" end="1000" number="1" from="110359368" to="270402542" type="type1" color="green"></flow>
    <flow id="flow_110" begin="81" end="1000" number="1" from="849508897" to="125421151" type="type1" color="green"></flow>
    <flow id="flow_111" begin="81" end="1000" number="1" from="156619624#1" to="626729853" type="type1" color="green"></flow>
    <flow id="flow_112" begin="82" end="1000" number="1" from="-494955622#2" to="477520100#4" type="type1" color="green"></flow>
    <flow id="flow_113" begin="84" end="1000" number="1" from="-1065570178#0" to="248996599#1" type="type1" color="green"></flow>
    <flow id="flow_114" begin="84" end="1000" number="1" from="37011399#3" to="-989128586#1" type="type1" color="green"></flow>
    <flow id="flow_115" begin="86" end="1000" number="1" from="150938155" to="788927147" type="type1" color="green"></flow>
    <flow id="flow_116" begin="86" end="1000" number="1" from="1066411996#0" to="227096307" type="type1" color="green"></flow>
    <flow id="flow_117" begin="88" end="1000" number="1" from="125233425#1" to="282484248#0" type="type1" color="green"></flow>
    <flow id="flow_118" begin="88" end="1000" number="1" from="617268273" to="792656458#0" type="type1" color="green"></flow>
    <flow id="flow_119" begin="88" end="1000" number="1" from="158487868#2" to="157110584#12" type="type1" color="green"></flow>
    <flow id="flow_120" begin="89" end="1000" number="1" from="1066411996#0" to="617268265" type="type1" color="green"></flow>
    <flow id="flow_121" begin="90" end="1000" number="1" from="157110580" to="96106217" type="type1" color="green"></flow>
    <flow id="flow_122" begin="90" end="1000" number="1" from="182891156" to="157110585#5" type="type1" color="green"></flow>
    <flow id="flow_123" begin="91" end="1000" number="1" from="-42145977#0" to="801361189" type="type1" color="green"></flow>
    <flow id="flow_124" begin="91" end="1000" number="1" from="194377775#0" to="159589401" type="type1" color="green"></flow>
    <flow id="flow_125" begin="91" end="1000" number="1" from="155988343#1" to="312047778" type="type1" color="green"></flow>
    <flow id="flow_126" begin="92" end="1000" number="1" from="-313739577" to="329638460" type="type1" color="green"></flow>
    <flow id="flow_127" begin="92" end="1000" number="1" from="-388848998" to="-561241604#1" type="type1" color="green"></flow>
    <flow id="flow_128" begin="93" end="1000" number="1" from="159589391#0" to="249003585#0" type="type1" color="green"></flow>
    <flow id="flow_129" begin="94" end="1000" number="1" from="112337622" to="802584516#3" type="type1" color="green"></flow>
    <flow id="flow_130" begin="94" end="1000" number="1" from="-176822022#2" to="850396593" type="type1" color="green"></flow>
    <flow id="flow_131" begin="95" end="1000" number="1" from="183535306#0" to="-42145975#0" type="type1" color="green"></flow>
    <flow id="flow_132" begin="95" end="1000" number="1" from="547316226#1" to="477520101" type="type1" color="green"></flow>
    <flow id="flow_133" begin="95" end="1000" number="1" from="309969746#8" to="768480644" type="type1" color="green"></flow>
    <flow id="flow_134" begin="95" end="1000" number="1" from="183906214#1" to="132740887" type="type1" color="green"></flow>
    <flow id="flow_135" begin="96" end="1000" number="1" from="553801612" to="374621234" type="type1" color="green"></flow>
    <flow id="flow_136" begin="96" end="1000" number="1" from="608037498" to="1066399893#0" type="type1" color="green"></flow>
    <flow id="flow_137" begin="97" end="1000" number="1" from="850396600#0" to="-127178240#0" type="type1" color="green"></flow>
    <flow id="flow_138" begin="98" end="1000" number="1" from="-548390954" to="-379868439" type="type1" color="green"></flow>
    <flow id="flow_139" begin="100" end="1000" number="1" from="494954909#0" to="192140082#1" type="type1" color="green"></flow>
    <flow id="flow_140" begin="100" end="1000" number="1" from="553803551#1" to="626729854" type="type1" color="green"></flow>
    <flow id="flow_141" begin="100" end="1000" number="1" from="-494955624#15" to="-794058532#1" type="type1" color="green"></flow>
    <flow id="flow_142" begin="100" end="1000" number="1" from="798973761" to="-494955624#13" type="type1" color="green"></flow>
    <flow id="flow_143" begin="101" end="1000" number="1" from="580512848" to="850396589" type="type1" color="green"></flow>
    <flow id="flow_144" begin="101" end="1000" number="1" from="-138907185" to="248996581" type="type1" color="green"></flow>
    <flow id="flow_145" begin="102" end="1000" number="1" from="-803808673#7" to="-388848801#1" type="type1" color="green"></flow>
    <flow id="flow_146" begin="102" end="1000" number="1" from="-155987495#7" to="-299449337#2" type="type1" color="green"></flow>
    <flow id="flow_147" begin="102" end="1000" number="1" from="-23807720#4" to="138907185" type="type1" color="green"></flow>
    <flow id="flow_148" begin="102" end="1000" number="1" from="-494955624#6" to="249725761#1" type="type1" color="green"></flow>
    <flow id="flow_149" begin="102" end="1000" number="1" from="-532805889#1" to="370744327#0" type="type1" color="green"></flow>
    <flow id="flow_150" begin="103" end="1000" number="1" from="231806082" to="157110591#0" type="type1" color="green"></flow>
    <flow id="flow_151" begin="103" end="1000" number="1" from="159590391#1" to="767891960#0" type="type1" color="green"></flow>
    <flow id="flow_152" begin="103" end="1000" number="1" from="530209573" to="-161067671#0" type="type1" color="green"></flow>
    <flow id="flow_153" begin="103" end="1000" number="1" from="494954915#1" to="-617266456" type="type1" color="green"></flow>
    <flow id="flow_154" begin="103" end="1000" number="1" from="-849508904" to="849508909" type="type1" color="green"></flow>
    <flow id="flow_155" begin="103" end="1000" number="1" from="159590386#1" to="-100467523#1" type="type1" color="green"></flow>
    <flow id="flow_156" begin="104" end="1000" number="1" from="157110590#0" to="178679549" type="type1" color="green"></flow>
    <flow id="flow_157" begin="104" end="1000" number="1" from="1086039944" to="182939101#2" type="type1" color="green"></flow>
    <flow id="flow_158" begin="105" end="1000" number="1" from="-248996587#0" to="801989873" type="type1" color="green"></flow>
    <flow id="flow_159" begin="105" end="1000" number="1" from="37011399#5" to="159590386#1" type="type1" color="green"></flow>
    <flow id="flow_160" begin="106" end="1000" number="1" from="-136314754#1" to="370744329#7" type="type1" color="green"></flow>
    <flow id="flow_161" begin="107" end="1000" number="1" from="545833754#0" to="130420828#0" type="type1" color="green"></flow>
    <flow id="flow_162" begin="107" end="1000" number="1" from="-191827125" to="125421158#0" type="type1" color="green"></flow>
    <flow id="flow_163" begin="108" end="1000" number="1" from="370035836#3" to="304586075" type="type1" color="green"></flow>
    <flow id="flow_164" begin="108" end="1000" number="1" from="156619623" to="477520101" type="type1" color="green"></flow>
    <flow id="flow_165" begin="108" end="1000" number="1" from="125421148" to="157110593#0" type="type1" color="green"></flow>
    <flow id="flow_166" begin="109" end="1000" number="1" from="-293398691#4" to="183535313#3" type="type1" color="green"></flow>
    <flow id="flow_167" begin="109" end="1000" number="1" from="182891209#1" to="388848030#2" type="type1" color="green"></flow>
    <flow id="flow_168" begin="110" end="1000" number="1" from="617268258#3" to="35828814" type="type1" color="green"></flow>
    <flow id="flow_169" begin="111" end="1000" number="1" from="159590375#1" to="23807720#8" type="type1" color="green"></flow>
    <flow id="flow_170" begin="111" end="1000" number="1" from="-313742211" to="-373707748#2" type="type1" color="green"></flow>
    <flow id="flow_171" begin="113" end="1000" number="1" from="494956648" to="159590396#2" type="type1" color="green"></flow>
    <flow id="flow_172" begin="114" end="1000" number="1" from="388848030#2" to="249003581" type="type1" color="green"></flow>
    <flow id="flow_173" begin="114" end="1000" number="1" from="-561241605" to="-299449336" type="type1" color="green"></flow>
    <flow id="flow_174" begin="115" end="1000" number="1" from="52252002#0" to="-187782968#1" type="type1" color="green"></flow>
    <flow id="flow_175" begin="117" end="1000" number="1" from="157110591#0" to="764499647" type="type1" color="green"></flow>
    <flow id="flow_176" begin="117" end="1000" number="1" from="-100467523#2" to="159590395#1" type="type1" color="green"></flow>
    <flow id="flow_177" begin="118" end="1000" number="1" from="-205835535" to="150938161#0" type="type1" color="green"></flow>
    <flow id="flow_178" begin="118" end="1000" number="1" from="388849003#2" to="547311952#2" type="type1" color="green"></flow>
    <flow id="flow_179" begin="118" end="1000" number="1" from="35828931#0" to="-313737574#1" type="type1" color="green"></flow>
    <flow id="flow_180" begin="118" end="1000" number="1" from="150938150#1" to="575357176" type="type1" color="green"></flow>
    <flow id="flow_181" begin="118" end="1000" number="1" from="388848801#2" to="159590387#3" type="type1" color="green"></flow>
    <flow id="flow_182" begin="119" end="1000" number="1" from="188224910" to="188224932#6" type="type1" color="green"></flow>
    <flow id="flow_183" begin="119" end="1000" number="1" from="-803808673#8" to="281442653#3" type="type1" color="green"></flow>
    <flow id="flow_184" begin="120" end="1000" number="1" from="125421141#0" to="249006687#2" type="type1" color="green"></flow>
    <flow id="flow_185" begin="120" end="1000" number="1" from="83686681#1" to="159590390#9" type="type1" color="green"></flow>
    <flow id="flow_186" begin="120" end="1000" number="1" from="160609849" to="-379836412" type="type1" color="green"></flow>
    <flow id="flow_187" begin="120" end="1000" number="1" from="494956648" to="494955624#5" type="type1" color="green"></flow>
    <flow id="flow_188" begin="121" end="1000" number="1" from="1065456897#1" to="989128585#7" type="type1" color="green"></flow>
    <flow id="flow_189" begin="121" end="1000" number="1" from="130420823#8" to="282478250" type="type1" color="green"></flow>
    <flow id="flow_190" begin="121" end="1000" number="1" from="-110359368" to="140367498" type="type1" color="green"></flow>
    <flow id="flow_191" begin="122" end="1000" number="1" from="136314750" to="27439385#0" type="type1" color="green"></flow>
    <flow id="flow_192" begin="122" end="1000" number="1" from="120729895#0" to="-313743396" type="type1" color="green"></flow>
    <flow id="flow_193" begin="122" end="1000" number="1" from="249003581" to="-125421141#4" type="type1" color="green"></flow>
    <flow id="flow_194" begin="124" end="1000" number="1" from="-27255747#0" to="72346477#0" type="type1" color="green"></flow>
    <flow id="flow_195" begin="125" end="1000" number="1" from="548390589#3" to="192147954" type="type1" color="green"></flow>
    <flow id="flow_196" begin="126" end="1000" number="1" from="-923201177#0" to="125421148" type="type1" color="green"></flow>
    <flow id="flow_197" begin="126" end="1000" number="1" from="-136573306" to="-309969746#3" type="type1" color="green"></flow>
    <flow id="flow_198" begin="127" end="1000" number="1" from="162569931#1" to="-1066399888" type="type1" color="green"></flow>
    <flow id="flow_199" begin="127" end="1000" number="1" from="249006694" to="329674529#3" type="type1" color="green"></flow>
    <flow id="flow_200" begin="127" end="1000" number="1" from="388843736" to="1066411996#0" type="type1" color="green"></flow>
    <flow id="flow_201" begin="128" end="1000" number="1" from="-919128575" to="248996599#1" type="type1" color="green"></flow>
    <flow id="flow_202" begin="129" end="1000" number="1" from="-136314755#3" to="-923201177#1" type="type1" color="green"></flow>
    <flow id="flow_203" begin="130" end="1000" number="1" from="27255747#2" to="1065570180" type="type1" color="green"></flow>
    <flow id="flow_204" begin="130" end="1000" number="1" from="-370398274" to="852720772#1" type="type1" color="green"></flow>
    <flow id="flow_205" begin="130" end="1000" number="1" from="120729894#0" to="125421148" type="type1" color="green"></flow>
    <flow id="flow_206" begin="130" end="1000" number="1" from="278256102" to="521736715#5" type="type1" color="green"></flow>
    <flow id="flow_207" begin="131" end="1000" number="1" from="249003555#1" to="312047778" type="type1" color="green"></flow>
    <flow id="flow_208" begin="133" end="1000" number="1" from="617268268" to="498955374" type="type1" color="green"></flow>
    <flow id="flow_209" begin="133" end="1000" number="1" from="989128593" to="-249003596#2" type="type1" color="green"></flow>
    <flow id="flow_210" begin="134" end="1000" number="1" from="-106767441#6" to="-282484251" type="type1" color="green"></flow>
    <flow id="flow_211" begin="134" end="1000" number="1" from="130420823#7" to="1113146190" type="type1" color="green"></flow>
    <flow id="flow_212" begin="137" end="1000" number="1" from="351740730" to="83686681#0" type="type1" color="green"></flow>
    <flow id="flow_213" begin="137" end="1000" number="1" from="155988347#2" to="545833754#0" type="type1" color="green"></flow>
    <flow id="flow_214" begin="137" end="1000" number="1" from="126611423" to="923198377" type="type1" color="green"></flow>
    <flow id="flow_215" begin="137" end="1000" number="1" from="329638716#0" to="-125421161#1" type="type1" color="green"></flow>
    <flow id="flow_216" begin="137" end="1000" number="1" from="231806078" to="157110585#4" type="type1" color="green"></flow>
    <flow id="flow_217" begin="137" end="1000" number="1" from="159589385#6" to="796971181" type="type1" color="green"></flow>
    <flow id="flow_218" begin="138" end="1000" number="1" from="494955622#1" to="-299449329" type="type1" color="green"></flow>
    <flow id="flow_219" begin="139" end="1000" number="1" from="-136314755#1" to="-102311760#1" type="type1" color="green"></flow>
    <flow id="flow_220" begin="140" end="1000" number="1" from="100645522#2" to="379681674#0" type="type1" color="green"></flow>
    <flow id="flow_221" begin="141" end="1000" number="1" from="196168182" to="798973759" type="type1" color="green"></flow>
    <flow id="flow_222" begin="141" end="1000" number="1" from="-201300541#3" to="798973763#5" type="type1" color="green"></flow>
    <flow id="flow_223" begin="141" end="1000" number="1" from="370035843" to="-52253101#0" type="type1" color="green"></flow>
    <flow id="flow_224" begin="141" end="1000" number="1" from="-106765653#3" to="188224912" type="type1" color="green"></flow>
    <flow id="flow_225" begin="142" end="1000" number="1" from="188210256#3" to="494955626" type="type1" color="green"></flow>
    <flow id="flow_226" begin="143" end="1000" number="1" from="42145978#4" to="801989874" type="type1" color="green"></flow>
    <flow id="flow_227" begin="144" end="1000" number="1" from="83686681#0" to="581280278" type="type1" color="green"></flow>
    <flow id="flow_228" begin="144" end="1000" number="1" from="617268280" to="249725533#1" type="type1" color="green"></flow>
    <flow id="flow_229" begin="144" end="1000" number="1" from="161247014#1" to="249003560" type="type1" color="green"></flow>
    <flow id="flow_230" begin="144" end="1000" number="1" from="162569928" to="797136335#1" type="type1" color="green"></flow>
    <flow id="flow_231" begin="145" end="1000" number="1" from="850396593" to="-553805665" type="type1" color="green"></flow>
    <flow id="flow_232" begin="145" end="1000" number="1" from="125421161#1" to="231806080" type="type1" color="green"></flow>
    <flow id="flow_233" begin="145" end="1000" number="1" from="-158487868#1" to="134064076#3" type="type1" color="green"></flow>